# generated using pymatgen
data_CaTiO3
_symmetry_space_group_name_H-M   'P 1'
_cell_length_a   5.40444906
_cell_length_b   5.51303112
_cell_length_c   7.69713264
_cell_angle_alpha   90.00000000
_cell_angle_beta   90.00000000
_cell_angle_gamma   90.00000000
_symmetry_Int_Tables_number   1
_chemical_formula_structural   CaTiO3
_chemical_formula_sum   'Ca4 Ti4 O12'
_cell_volume   229.33526539
_cell_formula_units_Z   4
loop_
 _symmetry_equiv_pos_site_id
 _symmetry_equiv_pos_as_xyz
  1  'x, y, z'
loop_
 _atom_site_type_symbol
 _atom_site_label
 _atom_site_symmetry_multiplicity
 _atom_site_fract_x
 _atom_site_fract_y
 _atom_site_fract_z
 _atom_site_occupancy
  Ca  Ca0  1  0.991521  0.044799  0.750000  1
  Ca  Ca1  1  0.491521  0.455201  0.250000  1
  Ca  Ca2  1  0.508479  0.544799  0.750000  1
  Ca  Ca3  1  0.008479  0.955201  0.250000  1
  Ti  Ti4  1  0.500000  0.000000  0.500000  1
  Ti  Ti5  1  0.000000  0.500000  0.500000  1
  Ti  Ti6  1  0.000000  0.500000  0.000000  1
  Ti  Ti7  1  0.500000  0.000000  0.000000  1
  O  O8  1  0.921935  0.520580  0.250000  1
  O  O9  1  0.421935  0.979420  0.750000  1
  O  O10  1  0.578065  0.020580  0.250000  1
  O  O11  1  0.078065  0.479420  0.750000  1
  O  O12  1  0.707456  0.291917  0.959281  1
  O  O13  1  0.207456  0.208083  0.040719  1
  O  O14  1  0.792544  0.791917  0.540719  1
  O  O15  1  0.292544  0.708083  0.459281  1
  O  O16  1  0.707456  0.291917  0.540719  1
  O  O17  1  0.207456  0.208083  0.459281  1
  O  O18  1  0.292544  0.708083  0.040719  1
  O  O19  1  0.792544  0.791917  0.959281  1
