# generated using pymatgen
data_SiO2
_symmetry_space_group_name_H-M   'P 1'
_cell_length_a   7.78693670
_cell_length_b   7.78693670
_cell_length_c   7.78693670
_cell_angle_alpha   109.47122063
_cell_angle_beta   109.47122063
_cell_angle_gamma   109.47122063
_symmetry_Int_Tables_number   1
_chemical_formula_structural   SiO2
_chemical_formula_sum   'Si6 O12'
_cell_volume   363.47792680
_cell_formula_units_Z   6
loop_
 _symmetry_equiv_pos_site_id
 _symmetry_equiv_pos_as_xyz
  1  'x, y, z'
loop_
 _atom_site_type_symbol
 _atom_site_label
 _atom_site_symmetry_multiplicity
 _atom_site_fract_x
 _atom_site_fract_y
 _atom_site_fract_z
 _atom_site_occupancy
  Si  Si0  1  0.50000000  0.75000000  0.25000000  1
  Si  Si1  1  0.75000000  0.50000000  0.25000000  1
  Si  Si2  1  0.25000000  0.75000000  0.50000000  1
  Si  Si3  1  0.25000000  0.50000000  0.75000000  1
  Si  Si4  1  0.50000000  0.25000000  0.75000000  1
  Si  Si5  1  0.75000000  0.25000000  0.50000000  1
  O  O6  1  0.66257500  0.36651300  0.00000000  1
  O  O7  1  0.29606200  0.63348700  0.63348700  1
  O  O8  1  0.66257500  1.00000000  0.36651300  1
  O  O9  1  0.36651300  0.66257500  1.00000000  1
  O  O10  1  1.00000000  0.66257500  0.36651300  1
  O  O11  1  0.63348700  0.29606200  0.63348700  1
  O  O12  1  0.63348700  0.63348700  0.29606200  1
  O  O13  1  1.00000000  0.36651300  0.66257500  1
  O  O14  1  0.36651300  1.00000000  0.66257500  1
  O  O15  1  0.33742500  0.33742500  0.70393800  1
  O  O16  1  0.70393800  0.33742500  0.33742500  1
  O  O17  1  0.33742500  0.70393800  0.33742500  1
