# generated using pymatgen
data_CuO2F
_symmetry_space_group_name_H-M   'P 1'
_cell_length_a   6.51330377
_cell_length_b   6.51330377
_cell_length_c   6.51330377
_cell_angle_alpha   152.39798668
_cell_angle_beta   135.37794542
_cell_angle_gamma   53.27728138
_symmetry_Int_Tables_number   1
_chemical_formula_structural   CuO2F
_chemical_formula_sum   'Cu2 O4 F2'
_cell_volume   89.46957164
_cell_formula_units_Z   2
loop_
 _symmetry_equiv_pos_site_id
 _symmetry_equiv_pos_as_xyz
  1  'x, y, z'
loop_
 _atom_site_type_symbol
 _atom_site_label
 _atom_site_symmetry_multiplicity
 _atom_site_fract_x
 _atom_site_fract_y
 _atom_site_fract_z
 _atom_site_occupancy
  Cu  Cu0  1  0.05518750  0.64848950  0.40669800  1
  Cu  Cu1  1  0.75820850  0.35151050  0.40669800  1
  O  O2  1  0.17985150  0.44487600  0.73497550  1
  O  O3  1  0.29009950  0.55512400  0.73497550  1
  O  O4  1  0.79555450  0.05744050  0.73811400  1
  O  O5  1  0.68067350  0.94255950  0.73811400  1
  F  F6  1  0.82915850  0.75388550  0.07527300  1
  F  F7  1  0.32138750  0.24611450  0.07527300  1
